Circuit: * Z:\Users\Enigmoid\Semester\MADVLSI\Project\vlsi-tunable-amp\ltspice\ampsim.asc

Direct Newton iteration failed to find .op point.  (Use ".option noopiter" to skip.)
Starting Gmin stepping
Gmin = 10
Gmin = 1.07374
Gmin = 0.115292
Gmin = 0.0123794
Gmin = 0.00132923
Gmin = 0.000142725
Gmin = 1.5325e-005
Gmin = 1.6455e-006
Gmin = 1.76685e-007
Gmin = 1.89714e-008
Gmin = 2.03704e-009
Gmin = 2.18725e-010
Gmin = 2.34854e-011
Gmin = 2.52173e-012
Gmin = 2.70769e-013
Gmin = 0
Gmin stepping succeeded in finding the operating point.


Date: Mon Nov 17 14:34:51 2014
Total elapsed time: 0.554 seconds.

tnom = 27
temp = 27
method = trap
totiter = 10667
traniter = 0
tranpoints = 0
accept = 0
rejected = 0
matrix size = 29
fillins = 28
solver = Normal
Thread vector: 36.3/18.0[3] 0.0/0.0[0] 2.7/8.8[1] 0.2/1.7[1]  2592/500
Matrix Compiler1:     273 opcodes  1.9/1.4/[0.4]
Matrix Compiler2: 3.88 KB object code size  0.7/0.9/[0.3]


